0V5_3UJS_B
     RDKit          3D

 14 13  0  0  0  0  0  0  0  0999 V2000
   31.2600   54.9260   -0.8750 C   0  0  0  0  0  0  0  0  0  0  0  0
   30.8710   54.2950   -1.8620 O   0  0  0  0  0  0  0  0  0  0  0  0
   31.6450   56.1290   -1.0580 O   0  0  0  0  0  1  0  0  0  0  0  0
   31.1980   54.3310    0.5550 C   0  0  1  0  0  0  0  0  0  0  0  0
   31.7360   52.8670    0.6730 C   0  0  0  0  0  0  0  0  0  0  0  0
   31.8690   55.1410    1.6490 O   0  0  0  0  0  0  0  0  0  0  0  0
   30.8680   56.1560    2.4500 P   0  0  0  0  0  5  0  0  0  0  0  0
   30.2430   57.0780    1.4240 O   0  0  0  0  0  0  0  0  0  0  0  0
   29.7930   55.2900    3.0590 O   0  0  0  0  0  1  0  0  0  0  0  0
   31.8510   56.7880    3.4100 O   0  0  0  0  0  1  0  0  0  0  0  0
   30.1109   54.3552    0.7211 H   0  0  0  0  0  0  0  0  0  0  0  0
   31.8351   52.5973    1.7348 H   0  0  0  0  0  0  0  0  0  0  0  0
   31.0326   52.1773    0.1836 H   0  0  0  0  0  0  0  0  0  0  0  0
   32.7186   52.7969    0.1836 H   0  0  0  0  0  0  0  0  0  0  0  0
  1  2  2  0
  1  3  1  0
  1  4  1  0
  4  5  1  0
  4  6  1  0
  6  7  1  0
  7  8  2  0
  7  9  1  0
  7 10  1  0
  4 11  1  1
  5 12  1  0
  5 13  1  0
  5 14  1  0
M  CHG  3   3  -1   9  -1  10  -1
M  END
